data/sourcebus_22000.trafo_75628932_75628932/Loads.dss
New Load.75647239_nmi_elem_75647239 bus1=3109754.2 kV=0.23094010767585033 Vminpu=0.7 Vmaxpu=1.3 model=1 kW=0.0 kvar=0.0 Phases=1
New Load.75648667_nmi_elem_75648667 bus1=3117016.1 kV=0.23094010767585033 Vminpu=0.7 Vmaxpu=1.3 model=1 kW=0.0 kvar=0.0 Phases=1
New Load.75649649_nmi_elem_75649649 bus1=3117175.1 kV=0.23094010767585033 Vminpu=0.7 Vmaxpu=1.3 model=1 kW=0.0 kvar=0.0 Phases=1
New Load.75649861_nmi_elem_75649861 bus1=3117202.3 kV=0.23094010767585033 Vminpu=0.7 Vmaxpu=1.3 model=1 kW=0.0 kvar=0.0 Phases=1
New Load.NMI_elem_75635544 bus1=3109754.2 kV=0.23094010767585033 Vminpu=0.7 Vmaxpu=1.3 model=1 kW=4.040237697897697 kvar=0.8204052555781187 Phases=1
New Load.NMI_elem_75635667 bus1=3116692.1 kV=0.23094010767585033 Vminpu=0.7 Vmaxpu=1.3 model=1 kW=3.2963446198790973 kvar=0.669351323500755 Phases=1
New Load.NMI_elem_75635668 bus1=3112702.1.2.3 kV=0.4 Vminpu=0.7 Vmaxpu=1.3 model=1 kW=14.513083475530209 kvar=2.9470072922106625 Phases=3
New Load.NMI_elem_75635669 bus1=3116693.1 kV=0.23094010767585033 Vminpu=0.7 Vmaxpu=1.3 model=1 kW=2.1671373538300642 kvar=0.44005600847865284 Phases=1
New Load.NMI_elem_75635670 bus1=3116694.2 kV=0.23094010767585033 Vminpu=0.7 Vmaxpu=1.3 model=1 kW=1.405863230200802 kvar=0.2854727045591695 Phases=1
New Load.NMI_elem_75635694 bus1=3116704.3 kV=0.23094010767585033 Vminpu=0.7 Vmaxpu=1.3 model=1 kW=0.7622150616304502 kvar=0.15477436952974416 Phases=1
New Load.NMI_elem_75635695 bus1=3109809.1 kV=0.23094010767585033 Vminpu=0.7 Vmaxpu=1.3 model=1 kW=1.5338400417208462 kvar=0.31145950449864007 Phases=1
New Load.NMI_elem_75635696 bus1=3116705.2 kV=0.23094010767585033 Vminpu=0.7 Vmaxpu=1.3 model=1 kW=1.2891785509928477 kvar=0.26177886988269394 Phases=1
New Load.NMI_elem_75635697 bus1=3109908.1 kV=0.23094010767585033 Vminpu=0.7 Vmaxpu=1.3 model=1 kW=2.048570550511311 kvar=0.41597999220109144 Phases=1
New Load.NMI_elem_75635698 bus1=3112924.3 kV=0.23094010767585033 Vminpu=0.7 Vmaxpu=1.3 model=1 kW=3.084618223841899 kvar=0.6263584451005769 Phases=1
New Load.NMI_elem_75635699 bus1=3109757.2 kV=0.23094010767585033 Vminpu=0.7 Vmaxpu=1.3 model=1 kW=1.7098082809552566 kvar=0.34719137947170353 Phases=1
New Load.NMI_elem_75635700 bus1=3109807.2 kV=0.23094010767585033 Vminpu=0.7 Vmaxpu=1.3 model=1 kW=1.4820847722603852 kvar=0.3009501488012469 Phases=1
New Load.NMI_elem_75635701 bus1=3109437.2 kV=0.23094010767585033 Vminpu=0.7 Vmaxpu=1.3 model=1 kW=2.4217071442163145 kvar=0.49174860915236407 Phases=1
New Load.NMI_elem_75635702 bus1=3116706.2 kV=0.23094010767585033 Vminpu=0.7 Vmaxpu=1.3 model=1 kW=0.7321028469294956 kvar=0.14865982354384474 Phases=1
New Load.NMI_elem_75635903 bus1=3111997.1.2.3 kV=0.4 Vminpu=0.7 Vmaxpu=1.3 model=1 kW=2.4217071442163145 kvar=0.4917486091523641 Phases=3
New Load.NMI_elem_75635904 bus1=3109753.1 kV=0.23094010767585033 Vminpu=0.7 Vmaxpu=1.3 model=1 kW=2.8512487281745216 kvar=0.5789707478775261 Phases=1
New Load.NMI_elem_75635905 bus1=3110501.3 kV=0.23094010767585033 Vminpu=0.7 Vmaxpu=1.3 model=1 kW=0.47144413004741664 kvar=0.0957308136111917 Phases=1
New Load.NMI_elem_75636972 bus1=3117016.1 kV=0.23094010767585033 Vminpu=0.7 Vmaxpu=1.3 model=1 kW=3.085559431067121 kvar=0.6265495653791094 Phases=1
New Load.NMI_elem_75637377 bus1=3117102.3 kV=0.23094010767585033 Vminpu=0.7 Vmaxpu=1.3 model=1 kW=1.5912414776365027 kvar=0.32311536319414197 Phases=1
New Load.NMI_elem_75637591 bus1=3117132.2 kV=0.23094010767585033 Vminpu=0.7 Vmaxpu=1.3 model=1 kW=0.6210640860683125 kvar=0.12611244148491346 Phases=1
New Load.NMI_elem_75637954 bus1=3117175.1 kV=0.23094010767585033 Vminpu=0.7 Vmaxpu=1.3 model=1 kW=5.00897598406195 kvar=1.0171159544715127 Phases=1
New Load.NMI_elem_75638149 bus1=3117198.2 kV=0.23094010767585033 Vminpu=0.7 Vmaxpu=1.3 model=1 kW=1.2144515665699913 kvar=0.24660490851257055 Phases=1
New Load.NMI_elem_75638166 bus1=3117202.3 kV=0.23094010767585033 Vminpu=0.7 Vmaxpu=1.3 model=1 kW=3.1147303936721813 kvar=0.6324729819750977 Phases=1
New Load.NMI_elem_75639347 bus1=3117311.2 kV=0.23094010767585033 Vminpu=0.7 Vmaxpu=1.3 model=1 kW=2.4217071442163145 kvar=0.49174860915236407 Phases=1
New Load.NMI_elem_75640554 bus1=3117377.3 kV=0.23094010767585033 Vminpu=0.7 Vmaxpu=1.3 model=1 kW=2.4217071442163145 kvar=0.49174860915236407 Phases=1
